
OS:Version,
  {853de8fe-7c09-45a5-afc0-5eb03b2602eb}, !- Handle
  3.4.0;                                  !- Version Identifier

OS:Schedule:Constant,
  {97586ebd-9356-4bd5-891f-20d0d6185501}, !- Handle
  Always On Discrete,                     !- Name
  {93af20df-fdd6-4d19-a9f3-2132ebeb484c}, !- Schedule Type Limits Name
  1;                                      !- Value

OS:ScheduleTypeLimits,
  {93af20df-fdd6-4d19-a9f3-2132ebeb484c}, !- Handle
  Always On Discrete Limits,              !- Name
  0,                                      !- Lower Limit Value
  1,                                      !- Upper Limit Value
  Discrete,                               !- Numeric Type
  Availability;                           !- Unit Type

OS:Material,
  {d5d41657-599e-42ac-9a35-c68fa3887dcc}, !- Handle
  Concrete Hollow Block - 15 mm.,         !- Name
  Rough,                                  !- Roughness
  0.015,                                  !- Thickness {m}
  0.155,                                  !- Conductivity {W/m-K}
  1529,                                   !- Density {kg/m3}
  880;                                    !- Specific Heat {J/kg-K}

OS:Site,
  {6adba8ef-c335-48ac-b143-d83e074b3ab5}, !- Handle
  Site 1,                                 !- Name
  ,                                       !- Latitude {deg}
  ,                                       !- Longitude {deg}
  ,                                       !- Time Zone {hr}
  ,                                       !- Elevation {m}
  ;                                       !- Terrain

OS:YearDescription,
  {4f85008d-2fdf-49f3-b7a0-e91b42b64af7}; !- Handle

OS:ClimateZones,
  {7f073182-46a1-4e5f-8210-a22b8650e673}, !- Handle
  ASHRAE,                                 !- Climate Zone Institution Name 1
  ANSI/ASHRAE Standard 169,               !- Climate Zone Document Name 1
  2006,                                   !- Climate Zone Document Year 1
  ,                                       !- Climate Zone Value 1
  CEC,                                    !- Climate Zone Institution Name 2
  California Climate Zone Descriptions,   !- Climate Zone Document Name 2
  1995,                                   !- Climate Zone Document Year 2
  ;                                       !- Climate Zone Value 2

OS:Building,
  {23ac9aa1-a956-4083-8644-6286c0f3eb06}, !- Handle
  Building 1,                             !- Name
  ,                                       !- Building Sector Type
  ,                                       !- North Axis {deg}
  ,                                       !- Nominal Floor to Floor Height {m}
  ,                                       !- Space Type Name
  ,                                       !- Default Construction Set Name
  ;                                       !- Default Schedule Set Name

OS:Facility,
  {b1ca61b5-8d6f-42a6-a6e1-30ea809fc175}; !- Handle

OS:SimulationControl,
  {a76d9d2c-4eae-4946-9d43-48b170a12b44}; !- Handle

OS:Sizing:Parameters,
  {823dac78-76e3-45d4-9de9-b82ab29be702}, !- Handle
  1.25,                                   !- Heating Sizing Factor
  1.15;                                   !- Cooling Sizing Factor

OS:Timestep,
  {2f55949d-ac75-4b85-ad10-47d928e7ed25}, !- Handle
  6;                                      !- Number of Timesteps per Hour

OS:ShadowCalculation,
  {053d8a01-ca74-4807-9ee0-186ef402bba4}, !- Handle
  PolygonClipping,                        !- Shading Calculation Method
  ,                                       !- Shading Calculation Update Frequency Method
  20,                                     !- Shading Calculation Update Frequency
  15000,                                  !- Maximum Figures in Shadow Overlap Calculations
  ,                                       !- Polygon Clipping Algorithm
  512,                                    !- Pixel Counting Resolution
  ,                                       !- Sky Diffuse Modeling Algorithm
  No,                                     !- Output External Shading Calculation Results
  No,                                     !- Disable Self-Shading Within Shading Zone Groups
  No;                                     !- Disable Self-Shading From Shading Zone Groups to Other Zones

OS:HeatBalanceAlgorithm,
  {ea98ccc0-1261-4d62-a31e-40eaabdb4ae0}, !- Handle
  ConductionTransferFunction,             !- Algorithm
  200;                                    !- Surface Temperature Upper Limit {C}

OS:RunPeriod,
  {bcce21e7-7345-42c9-904e-42a72f0aa8d3}, !- Handle
  Run Period 1,                           !- Name
  1,                                      !- Begin Month
  1,                                      !- Begin Day of Month
  12,                                     !- End Month
  31,                                     !- End Day of Month
  ,                                       !- Use Weather File Holidays and Special Days
  ,                                       !- Use Weather File Daylight Saving Period
  ,                                       !- Apply Weekend Holiday Rule
  ,                                       !- Use Weather File Rain Indicators
  ,                                       !- Use Weather File Snow Indicators
  ;                                       !- Number of Times Runperiod to be Repeated

OS:LifeCycleCost:Parameters,
  {a412c388-ac12-4256-8c07-66472f203180}, !- Handle
  ,                                       !- Analysis Type
  ,                                       !- Discounting Convention
  ,                                       !- Inflation Approach
  ,                                       !- Real Discount Rate
  ,                                       !- Nominal Discount Rate
  ,                                       !- Inflation
  ,                                       !- Base Date Month
  ,                                       !- Base Date Year
  ,                                       !- Service Date Month
  ,                                       !- Service Date Year
  ;                                       !- Length of Study Period in Years

OS:StandardsInformation:Material,
  {c1299e68-01a6-4eda-90ca-6c2485a5efd1}, !- Handle
  {d5d41657-599e-42ac-9a35-c68fa3887dcc}; !- Material Name

