
OS:Version,
  {5e0acc01-0a29-42c3-972a-b1845a7418db}, !- Handle
  3.4.0;                                  !- Version Identifier

OS:Site,
  {67fceaa8-a5e7-4fbc-8c3a-8e041c7233ad}, !- Handle
  Mactan Cebu Intl AP,                    !- Name
  10.308,                                 !- Latitude {deg}
  123.979,                                !- Longitude {deg}
  8,                                      !- Time Zone {hr}
  9.4,                                    !- Elevation {m}
  ;                                       !- Terrain

OS:YearDescription,
  {9a5bb467-5fe2-4bda-b86b-9082ad9a1201}, !- Handle
  ,                                       !- Calendar Year
  Sunday;                                 !- Day of Week for Start Day

OS:ClimateZones,
  {2f148af0-415f-47da-9f64-e38611b83c38}, !- Handle
  ASHRAE,                                 !- Climate Zone Institution Name 1
  ANSI/ASHRAE Standard 169,               !- Climate Zone Document Name 1
  2006,                                   !- Climate Zone Document Year 1
  ,                                       !- Climate Zone Value 1
  CEC,                                    !- Climate Zone Institution Name 2
  California Climate Zone Descriptions,   !- Climate Zone Document Name 2
  1995,                                   !- Climate Zone Document Year 2
  ;                                       !- Climate Zone Value 2

OS:Building,
  {8414047a-7674-4d2e-a311-bc1b324fb340}, !- Handle
  Building 1,                             !- Name
  ,                                       !- Building Sector Type
  -0,                                     !- North Axis {deg}
  ,                                       !- Nominal Floor to Floor Height {m}
  ,                                       !- Space Type Name
  ,                                       !- Default Construction Set Name
  ,                                       !- Default Schedule Set Name
  ,                                       !- Standards Number of Stories
  ,                                       !- Standards Number of Above Ground Stories
  ,                                       !- Standards Template
  ,                                       !- Standards Building Type
  ,                                       !- Standards Number of Living Units
  ,                                       !- Relocatable
  ;                                       !- Nominal Floor to Ceiling Height {m}

OS:Facility,
  {aaed1d14-c7c3-4adf-9e0a-7155a4820b44}; !- Handle

OS:SimulationControl,
  {f7da0a8a-9b7a-435c-8e18-4fa4cf9a64d3}; !- Handle

OS:Sizing:Parameters,
  {1938fc19-e552-4e9a-8504-11b98ef5a84e}, !- Handle
  1.25,                                   !- Heating Sizing Factor
  1.15;                                   !- Cooling Sizing Factor

OS:Timestep,
  {4e7404dd-bf85-43cd-b0a2-5c87830ed552}, !- Handle
  6;                                      !- Number of Timesteps per Hour

OS:ShadowCalculation,
  {c7a10732-8b8a-4788-9602-0ec103a8419e}, !- Handle
  PolygonClipping,                        !- Shading Calculation Method
  ,                                       !- Shading Calculation Update Frequency Method
  20,                                     !- Shading Calculation Update Frequency
  15000,                                  !- Maximum Figures in Shadow Overlap Calculations
  ,                                       !- Polygon Clipping Algorithm
  512,                                    !- Pixel Counting Resolution
  ,                                       !- Sky Diffuse Modeling Algorithm
  No,                                     !- Output External Shading Calculation Results
  No,                                     !- Disable Self-Shading Within Shading Zone Groups
  No;                                     !- Disable Self-Shading From Shading Zone Groups to Other Zones

OS:HeatBalanceAlgorithm,
  {fb524613-3e35-4c31-9ca7-283fe15d050e}, !- Handle
  ConductionTransferFunction,             !- Algorithm
  200;                                    !- Surface Temperature Upper Limit {C}

OS:RunPeriod,
  {67571d8a-dad1-46bd-9d42-c5a5dcc10964}, !- Handle
  Run Period 1,                           !- Name
  1,                                      !- Begin Month
  1,                                      !- Begin Day of Month
  12,                                     !- End Month
  31,                                     !- End Day of Month
  ,                                       !- Use Weather File Holidays and Special Days
  ,                                       !- Use Weather File Daylight Saving Period
  ,                                       !- Apply Weekend Holiday Rule
  ,                                       !- Use Weather File Rain Indicators
  ,                                       !- Use Weather File Snow Indicators
  ;                                       !- Number of Times Runperiod to be Repeated

OS:LifeCycleCost:Parameters,
  {6c6be057-2baf-49d5-8f50-dd51ba34030d}, !- Handle
  ,                                       !- Analysis Type
  ,                                       !- Discounting Convention
  ,                                       !- Inflation Approach
  ,                                       !- Real Discount Rate
  ,                                       !- Nominal Discount Rate
  ,                                       !- Inflation
  ,                                       !- Base Date Month
  ,                                       !- Base Date Year
  ,                                       !- Service Date Month
  ,                                       !- Service Date Year
  ;                                       !- Length of Study Period in Years

OS:BuildingStory,
  {7b046865-196d-4a6b-8d22-c94c4af128eb}, !- Handle
  Story 1,                                !- Name
  0,                                      !- Nominal Z Coordinate {m}
  3.4,                                    !- Nominal Floor to Floor Height {m}
  ,                                       !- Default Construction Set Name
  ,                                       !- Default Schedule Set Name
  {5d41a7a1-adbd-4b47-abe3-e1d981c3c6a9}, !- Group Rendering Name
  3.4;                                    !- Nominal Floor to Ceiling Height {m}

OS:Rendering:Color,
  {5d41a7a1-adbd-4b47-abe3-e1d981c3c6a9}, !- Handle
  Rendering Color 1,                      !- Name
  51,                                     !- Rendering Red Value
  34,                                     !- Rendering Green Value
  136,                                    !- Rendering Blue Value
  255;                                    !- Rendering Alpha Value

OS:Space,
  {0438c973-e3d8-4f2e-aa3e-87ae487d6eaf}, !- Handle
  Space 1 - 1,                            !- Name
  ,                                       !- Space Type Name
  ,                                       !- Default Construction Set Name
  ,                                       !- Default Schedule Set Name
  ,                                       !- Direction of Relative North {deg}
  ,                                       !- X Origin {m}
  ,                                       !- Y Origin {m}
  ,                                       !- Z Origin {m}
  {7b046865-196d-4a6b-8d22-c94c4af128eb}, !- Building Story Name
  {956618ad-6eff-4300-823e-de166167700b}, !- Thermal Zone Name
  ,                                       !- Part of Total Floor Area
  ,                                       !- Design Specification Outdoor Air Object Name
  ;                                       !- Building Unit Name

OS:ThermalZone,
  {956618ad-6eff-4300-823e-de166167700b}, !- Handle
  Thermal Zone 1,                         !- Name
  1,                                      !- Multiplier
  ,                                       !- Ceiling Height {m}
  ,                                       !- Volume {m3}
  ,                                       !- Floor Area {m2}
  ,                                       !- Zone Inside Convection Algorithm
  ,                                       !- Zone Outside Convection Algorithm
  ,                                       !- Zone Conditioning Equipment List Name
  {ab877d50-7f98-4408-bc13-10ee91dbc13f}, !- Zone Air Inlet Port List
  {a0c8cb9d-aac4-4752-974d-44e4b63f6b4a}, !- Zone Air Exhaust Port List
  {c57bc54f-2458-4ecf-badc-e1df4966fb2c}, !- Zone Air Node Name
  {1d176888-8673-445a-b6b7-3a5c36970d48}, !- Zone Return Air Port List
  ,                                       !- Primary Daylighting Control Name
  ,                                       !- Fraction of Zone Controlled by Primary Daylighting Control
  ,                                       !- Secondary Daylighting Control Name
  ,                                       !- Fraction of Zone Controlled by Secondary Daylighting Control
  ,                                       !- Illuminance Map Name
  {8e2b7c7a-97d4-44f9-994e-dcf21403cab7}, !- Group Rendering Name
  ,                                       !- Thermostat Name
  No;                                     !- Use Ideal Air Loads

OS:Node,
  {30ea45f8-9f19-404e-a16c-74aba38d8bca}, !- Handle
  Node 1,                                 !- Name
  {c57bc54f-2458-4ecf-badc-e1df4966fb2c}, !- Inlet Port
  ;                                       !- Outlet Port

OS:Connection,
  {c57bc54f-2458-4ecf-badc-e1df4966fb2c}, !- Handle
  {956618ad-6eff-4300-823e-de166167700b}, !- Source Object
  11,                                     !- Outlet Port
  {30ea45f8-9f19-404e-a16c-74aba38d8bca}, !- Target Object
  2;                                      !- Inlet Port

OS:PortList,
  {ab877d50-7f98-4408-bc13-10ee91dbc13f}, !- Handle
  {956618ad-6eff-4300-823e-de166167700b}; !- HVAC Component

OS:PortList,
  {a0c8cb9d-aac4-4752-974d-44e4b63f6b4a}, !- Handle
  {956618ad-6eff-4300-823e-de166167700b}; !- HVAC Component

OS:PortList,
  {1d176888-8673-445a-b6b7-3a5c36970d48}, !- Handle
  {956618ad-6eff-4300-823e-de166167700b}; !- HVAC Component

OS:Sizing:Zone,
  {3f8c1148-57eb-4aab-953d-5698481fb97c}, !- Handle
  {956618ad-6eff-4300-823e-de166167700b}, !- Zone or ZoneList Name
  SupplyAirTemperature,                   !- Zone Cooling Design Supply Air Temperature Input Method
  14,                                     !- Zone Cooling Design Supply Air Temperature {C}
  11.11,                                  !- Zone Cooling Design Supply Air Temperature Difference {deltaC}
  SupplyAirTemperature,                   !- Zone Heating Design Supply Air Temperature Input Method
  40,                                     !- Zone Heating Design Supply Air Temperature {C}
  11.11,                                  !- Zone Heating Design Supply Air Temperature Difference {deltaC}
  0.0085,                                 !- Zone Cooling Design Supply Air Humidity Ratio {kg-H2O/kg-air}
  0.008,                                  !- Zone Heating Design Supply Air Humidity Ratio {kg-H2O/kg-air}
  ,                                       !- Zone Heating Sizing Factor
  ,                                       !- Zone Cooling Sizing Factor
  DesignDay,                              !- Cooling Design Air Flow Method
  ,                                       !- Cooling Design Air Flow Rate {m3/s}
  ,                                       !- Cooling Minimum Air Flow per Zone Floor Area {m3/s-m2}
  ,                                       !- Cooling Minimum Air Flow {m3/s}
  ,                                       !- Cooling Minimum Air Flow Fraction
  DesignDay,                              !- Heating Design Air Flow Method
  ,                                       !- Heating Design Air Flow Rate {m3/s}
  ,                                       !- Heating Maximum Air Flow per Zone Floor Area {m3/s-m2}
  ,                                       !- Heating Maximum Air Flow {m3/s}
  ,                                       !- Heating Maximum Air Flow Fraction
  No,                                     !- Account for Dedicated Outdoor Air System
  NeutralSupplyAir,                       !- Dedicated Outdoor Air System Control Strategy
  autosize,                               !- Dedicated Outdoor Air Low Setpoint Temperature for Design {C}
  autosize;                               !- Dedicated Outdoor Air High Setpoint Temperature for Design {C}

OS:ZoneHVAC:EquipmentList,
  {86e36154-be55-4875-b29a-c846f4905997}, !- Handle
  Zone HVAC Equipment List 1,             !- Name
  {956618ad-6eff-4300-823e-de166167700b}; !- Thermal Zone

OS:Rendering:Color,
  {8e2b7c7a-97d4-44f9-994e-dcf21403cab7}, !- Handle
  Rendering Color 2,                      !- Name
  136,                                    !- Rendering Red Value
  204,                                    !- Rendering Green Value
  238,                                    !- Rendering Blue Value
  255;                                    !- Rendering Alpha Value

OS:BuildingStory,
  {478bf982-d5fc-488e-a936-d49b70653e55}, !- Handle
  Story 2,                                !- Name
  3.4,                                    !- Nominal Z Coordinate {m}
  3.2,                                    !- Nominal Floor to Floor Height {m}
  ,                                       !- Default Construction Set Name
  ,                                       !- Default Schedule Set Name
  {33be2cbe-f491-46e5-a4b5-8ccdc672181f}, !- Group Rendering Name
  3.2;                                    !- Nominal Floor to Ceiling Height {m}

OS:Rendering:Color,
  {33be2cbe-f491-46e5-a4b5-8ccdc672181f}, !- Handle
  Rendering Color 3,                      !- Name
  17,                                     !- Rendering Red Value
  119,                                    !- Rendering Green Value
  51,                                     !- Rendering Blue Value
  255;                                    !- Rendering Alpha Value

OS:Space,
  {7a796048-4510-44ad-97f2-8a6b1e0c5c62}, !- Handle
  Space 1 - 2,                            !- Name
  ,                                       !- Space Type Name
  ,                                       !- Default Construction Set Name
  ,                                       !- Default Schedule Set Name
  ,                                       !- Direction of Relative North {deg}
  ,                                       !- X Origin {m}
  ,                                       !- Y Origin {m}
  ,                                       !- Z Origin {m}
  {7b046865-196d-4a6b-8d22-c94c4af128eb}, !- Building Story Name
  {5f891cb8-872c-4a70-b086-0209bc2e6fde}, !- Thermal Zone Name
  ,                                       !- Part of Total Floor Area
  ,                                       !- Design Specification Outdoor Air Object Name
  ;                                       !- Building Unit Name

OS:ThermalZone,
  {5f891cb8-872c-4a70-b086-0209bc2e6fde}, !- Handle
  Thermal Zone 2,                         !- Name
  1,                                      !- Multiplier
  ,                                       !- Ceiling Height {m}
  ,                                       !- Volume {m3}
  ,                                       !- Floor Area {m2}
  ,                                       !- Zone Inside Convection Algorithm
  ,                                       !- Zone Outside Convection Algorithm
  ,                                       !- Zone Conditioning Equipment List Name
  {2e48bc42-9016-49fe-9ad9-84ca96c4c2a7}, !- Zone Air Inlet Port List
  {f4387460-d613-45a0-b30e-49df36ce288e}, !- Zone Air Exhaust Port List
  {9a939938-04a2-4c1f-9b56-069e1bf45476}, !- Zone Air Node Name
  {693c36e3-0bef-4034-8adf-3c3a6f680f60}, !- Zone Return Air Port List
  ,                                       !- Primary Daylighting Control Name
  ,                                       !- Fraction of Zone Controlled by Primary Daylighting Control
  ,                                       !- Secondary Daylighting Control Name
  ,                                       !- Fraction of Zone Controlled by Secondary Daylighting Control
  ,                                       !- Illuminance Map Name
  {aba8bce8-a782-476b-b4ca-fb5b790fb371}, !- Group Rendering Name
  ,                                       !- Thermostat Name
  No;                                     !- Use Ideal Air Loads

OS:Node,
  {b0c26134-c68d-419a-9bec-4d9f56b0d263}, !- Handle
  Node 2,                                 !- Name
  {9a939938-04a2-4c1f-9b56-069e1bf45476}, !- Inlet Port
  ;                                       !- Outlet Port

OS:Connection,
  {9a939938-04a2-4c1f-9b56-069e1bf45476}, !- Handle
  {5f891cb8-872c-4a70-b086-0209bc2e6fde}, !- Source Object
  11,                                     !- Outlet Port
  {b0c26134-c68d-419a-9bec-4d9f56b0d263}, !- Target Object
  2;                                      !- Inlet Port

OS:PortList,
  {2e48bc42-9016-49fe-9ad9-84ca96c4c2a7}, !- Handle
  {5f891cb8-872c-4a70-b086-0209bc2e6fde}; !- HVAC Component

OS:PortList,
  {f4387460-d613-45a0-b30e-49df36ce288e}, !- Handle
  {5f891cb8-872c-4a70-b086-0209bc2e6fde}; !- HVAC Component

OS:PortList,
  {693c36e3-0bef-4034-8adf-3c3a6f680f60}, !- Handle
  {5f891cb8-872c-4a70-b086-0209bc2e6fde}; !- HVAC Component

OS:Sizing:Zone,
  {1eda861c-2d83-4ce6-bd5a-d7daab0f55da}, !- Handle
  {5f891cb8-872c-4a70-b086-0209bc2e6fde}, !- Zone or ZoneList Name
  SupplyAirTemperature,                   !- Zone Cooling Design Supply Air Temperature Input Method
  14,                                     !- Zone Cooling Design Supply Air Temperature {C}
  11.11,                                  !- Zone Cooling Design Supply Air Temperature Difference {deltaC}
  SupplyAirTemperature,                   !- Zone Heating Design Supply Air Temperature Input Method
  40,                                     !- Zone Heating Design Supply Air Temperature {C}
  11.11,                                  !- Zone Heating Design Supply Air Temperature Difference {deltaC}
  0.0085,                                 !- Zone Cooling Design Supply Air Humidity Ratio {kg-H2O/kg-air}
  0.008,                                  !- Zone Heating Design Supply Air Humidity Ratio {kg-H2O/kg-air}
  ,                                       !- Zone Heating Sizing Factor
  ,                                       !- Zone Cooling Sizing Factor
  DesignDay,                              !- Cooling Design Air Flow Method
  ,                                       !- Cooling Design Air Flow Rate {m3/s}
  ,                                       !- Cooling Minimum Air Flow per Zone Floor Area {m3/s-m2}
  ,                                       !- Cooling Minimum Air Flow {m3/s}
  ,                                       !- Cooling Minimum Air Flow Fraction
  DesignDay,                              !- Heating Design Air Flow Method
  ,                                       !- Heating Design Air Flow Rate {m3/s}
  ,                                       !- Heating Maximum Air Flow per Zone Floor Area {m3/s-m2}
  ,                                       !- Heating Maximum Air Flow {m3/s}
  ,                                       !- Heating Maximum Air Flow Fraction
  No,                                     !- Account for Dedicated Outdoor Air System
  NeutralSupplyAir,                       !- Dedicated Outdoor Air System Control Strategy
  autosize,                               !- Dedicated Outdoor Air Low Setpoint Temperature for Design {C}
  autosize;                               !- Dedicated Outdoor Air High Setpoint Temperature for Design {C}

OS:ZoneHVAC:EquipmentList,
  {55cfbdef-1b02-441e-95e4-efa39eae135b}, !- Handle
  Zone HVAC Equipment List 2,             !- Name
  {5f891cb8-872c-4a70-b086-0209bc2e6fde}; !- Thermal Zone

OS:Rendering:Color,
  {aba8bce8-a782-476b-b4ca-fb5b790fb371}, !- Handle
  Rendering Color 4,                      !- Name
  51,                                     !- Rendering Red Value
  34,                                     !- Rendering Green Value
  136,                                    !- Rendering Blue Value
  255;                                    !- Rendering Alpha Value

OS:Space,
  {393e7314-7a42-444d-8a7f-0684a9433e2f}, !- Handle
  Space 1 - 3,                            !- Name
  ,                                       !- Space Type Name
  ,                                       !- Default Construction Set Name
  ,                                       !- Default Schedule Set Name
  ,                                       !- Direction of Relative North {deg}
  ,                                       !- X Origin {m}
  ,                                       !- Y Origin {m}
  ,                                       !- Z Origin {m}
  {7b046865-196d-4a6b-8d22-c94c4af128eb}, !- Building Story Name
  {1f47c27b-5b68-44a2-8e3f-2e0b2b7c3738}, !- Thermal Zone Name
  ,                                       !- Part of Total Floor Area
  ,                                       !- Design Specification Outdoor Air Object Name
  ;                                       !- Building Unit Name

OS:ThermalZone,
  {1f47c27b-5b68-44a2-8e3f-2e0b2b7c3738}, !- Handle
  Thermal Zone 3,                         !- Name
  1,                                      !- Multiplier
  ,                                       !- Ceiling Height {m}
  ,                                       !- Volume {m3}
  ,                                       !- Floor Area {m2}
  ,                                       !- Zone Inside Convection Algorithm
  ,                                       !- Zone Outside Convection Algorithm
  ,                                       !- Zone Conditioning Equipment List Name
  {e7eb96af-acf5-4cf3-836e-48eeaf8be908}, !- Zone Air Inlet Port List
  {c13bce73-11fd-413b-9775-a666fdbd9e92}, !- Zone Air Exhaust Port List
  {80488d8b-4ff9-42b6-bea3-e4b9331ca524}, !- Zone Air Node Name
  {e6949e95-9807-4bc8-810f-4ecc256f19d7}, !- Zone Return Air Port List
  ,                                       !- Primary Daylighting Control Name
  ,                                       !- Fraction of Zone Controlled by Primary Daylighting Control
  ,                                       !- Secondary Daylighting Control Name
  ,                                       !- Fraction of Zone Controlled by Secondary Daylighting Control
  ,                                       !- Illuminance Map Name
  {d467e02e-12e4-48a1-b9ef-58870327002a}, !- Group Rendering Name
  ,                                       !- Thermostat Name
  No;                                     !- Use Ideal Air Loads

OS:Node,
  {b15a84c0-62cf-4c83-8676-621cc470a113}, !- Handle
  Node 3,                                 !- Name
  {80488d8b-4ff9-42b6-bea3-e4b9331ca524}, !- Inlet Port
  ;                                       !- Outlet Port

OS:Connection,
  {80488d8b-4ff9-42b6-bea3-e4b9331ca524}, !- Handle
  {1f47c27b-5b68-44a2-8e3f-2e0b2b7c3738}, !- Source Object
  11,                                     !- Outlet Port
  {b15a84c0-62cf-4c83-8676-621cc470a113}, !- Target Object
  2;                                      !- Inlet Port

OS:PortList,
  {e7eb96af-acf5-4cf3-836e-48eeaf8be908}, !- Handle
  {1f47c27b-5b68-44a2-8e3f-2e0b2b7c3738}; !- HVAC Component

OS:PortList,
  {c13bce73-11fd-413b-9775-a666fdbd9e92}, !- Handle
  {1f47c27b-5b68-44a2-8e3f-2e0b2b7c3738}; !- HVAC Component

OS:PortList,
  {e6949e95-9807-4bc8-810f-4ecc256f19d7}, !- Handle
  {1f47c27b-5b68-44a2-8e3f-2e0b2b7c3738}; !- HVAC Component

OS:Sizing:Zone,
  {c7506bad-4792-46c3-bc11-77a92563cf63}, !- Handle
  {1f47c27b-5b68-44a2-8e3f-2e0b2b7c3738}, !- Zone or ZoneList Name
  SupplyAirTemperature,                   !- Zone Cooling Design Supply Air Temperature Input Method
  14,                                     !- Zone Cooling Design Supply Air Temperature {C}
  11.11,                                  !- Zone Cooling Design Supply Air Temperature Difference {deltaC}
  SupplyAirTemperature,                   !- Zone Heating Design Supply Air Temperature Input Method
  40,                                     !- Zone Heating Design Supply Air Temperature {C}
  11.11,                                  !- Zone Heating Design Supply Air Temperature Difference {deltaC}
  0.0085,                                 !- Zone Cooling Design Supply Air Humidity Ratio {kg-H2O/kg-air}
  0.008,                                  !- Zone Heating Design Supply Air Humidity Ratio {kg-H2O/kg-air}
  ,                                       !- Zone Heating Sizing Factor
  ,                                       !- Zone Cooling Sizing Factor
  DesignDay,                              !- Cooling Design Air Flow Method
  ,                                       !- Cooling Design Air Flow Rate {m3/s}
  ,                                       !- Cooling Minimum Air Flow per Zone Floor Area {m3/s-m2}
  ,                                       !- Cooling Minimum Air Flow {m3/s}
  ,                                       !- Cooling Minimum Air Flow Fraction
  DesignDay,                              !- Heating Design Air Flow Method
  ,                                       !- Heating Design Air Flow Rate {m3/s}
  ,                                       !- Heating Maximum Air Flow per Zone Floor Area {m3/s-m2}
  ,                                       !- Heating Maximum Air Flow {m3/s}
  ,                                       !- Heating Maximum Air Flow Fraction
  No,                                     !- Account for Dedicated Outdoor Air System
  NeutralSupplyAir,                       !- Dedicated Outdoor Air System Control Strategy
  autosize,                               !- Dedicated Outdoor Air Low Setpoint Temperature for Design {C}
  autosize;                               !- Dedicated Outdoor Air High Setpoint Temperature for Design {C}

OS:ZoneHVAC:EquipmentList,
  {8e50f7ae-2df5-45ce-8eed-6457e2fff675}, !- Handle
  Zone HVAC Equipment List 3,             !- Name
  {1f47c27b-5b68-44a2-8e3f-2e0b2b7c3738}; !- Thermal Zone

OS:Rendering:Color,
  {d467e02e-12e4-48a1-b9ef-58870327002a}, !- Handle
  Rendering Color 5,                      !- Name
  17,                                     !- Rendering Red Value
  119,                                    !- Rendering Green Value
  51,                                     !- Rendering Blue Value
  255;                                    !- Rendering Alpha Value

OS:Space,
  {409b2126-d606-467b-b527-ca070285b02c}, !- Handle
  Space 1 - 4,                            !- Name
  ,                                       !- Space Type Name
  ,                                       !- Default Construction Set Name
  ,                                       !- Default Schedule Set Name
  ,                                       !- Direction of Relative North {deg}
  ,                                       !- X Origin {m}
  ,                                       !- Y Origin {m}
  ,                                       !- Z Origin {m}
  {7b046865-196d-4a6b-8d22-c94c4af128eb}, !- Building Story Name
  {40243b25-f2ee-4fe8-af55-6792e13e0f2a}, !- Thermal Zone Name
  ,                                       !- Part of Total Floor Area
  ,                                       !- Design Specification Outdoor Air Object Name
  ;                                       !- Building Unit Name

OS:ThermalZone,
  {40243b25-f2ee-4fe8-af55-6792e13e0f2a}, !- Handle
  Thermal Zone 4,                         !- Name
  1,                                      !- Multiplier
  ,                                       !- Ceiling Height {m}
  ,                                       !- Volume {m3}
  ,                                       !- Floor Area {m2}
  ,                                       !- Zone Inside Convection Algorithm
  ,                                       !- Zone Outside Convection Algorithm
  ,                                       !- Zone Conditioning Equipment List Name
  {1efe2a6f-9020-404b-b878-50a101cecf4d}, !- Zone Air Inlet Port List
  {e392f546-8b83-4c3f-904a-1cbc8baa7b39}, !- Zone Air Exhaust Port List
  {9867d0b9-ab00-48f1-a9ec-7fa07da7230f}, !- Zone Air Node Name
  {bf048d44-86dc-40d7-b0cd-ce686170111d}, !- Zone Return Air Port List
  ,                                       !- Primary Daylighting Control Name
  ,                                       !- Fraction of Zone Controlled by Primary Daylighting Control
  ,                                       !- Secondary Daylighting Control Name
  ,                                       !- Fraction of Zone Controlled by Secondary Daylighting Control
  ,                                       !- Illuminance Map Name
  {72fb2ef0-1545-4191-a251-9f22a41b7ee4}, !- Group Rendering Name
  ,                                       !- Thermostat Name
  No;                                     !- Use Ideal Air Loads

OS:Node,
  {b9c56419-55f7-46ac-aa48-ccad6cec8729}, !- Handle
  Node 4,                                 !- Name
  {9867d0b9-ab00-48f1-a9ec-7fa07da7230f}, !- Inlet Port
  ;                                       !- Outlet Port

OS:Connection,
  {9867d0b9-ab00-48f1-a9ec-7fa07da7230f}, !- Handle
  {40243b25-f2ee-4fe8-af55-6792e13e0f2a}, !- Source Object
  11,                                     !- Outlet Port
  {b9c56419-55f7-46ac-aa48-ccad6cec8729}, !- Target Object
  2;                                      !- Inlet Port

OS:PortList,
  {1efe2a6f-9020-404b-b878-50a101cecf4d}, !- Handle
  {40243b25-f2ee-4fe8-af55-6792e13e0f2a}; !- HVAC Component

OS:PortList,
  {e392f546-8b83-4c3f-904a-1cbc8baa7b39}, !- Handle
  {40243b25-f2ee-4fe8-af55-6792e13e0f2a}; !- HVAC Component

OS:PortList,
  {bf048d44-86dc-40d7-b0cd-ce686170111d}, !- Handle
  {40243b25-f2ee-4fe8-af55-6792e13e0f2a}; !- HVAC Component

OS:Sizing:Zone,
  {9401bc02-c6dd-45be-bd68-a9a0d958b8ac}, !- Handle
  {40243b25-f2ee-4fe8-af55-6792e13e0f2a}, !- Zone or ZoneList Name
  SupplyAirTemperature,                   !- Zone Cooling Design Supply Air Temperature Input Method
  14,                                     !- Zone Cooling Design Supply Air Temperature {C}
  11.11,                                  !- Zone Cooling Design Supply Air Temperature Difference {deltaC}